
  EPA STORM WATER MANAGEMENT MODEL - VERSION 5.1 (Build 5.3.0.dev0)
  --------------------------------------------------------------

  WARNING 02: maximum depth increased for Node 02
  WARNING 02: maximum depth increased for Node 0201
  WARNING 02: maximum depth increased for Node 0202
  WARNING 02: maximum depth increased for Node 3001
  WARNING 02: maximum depth increased for Node 0401
  WARNING 02: maximum depth increased for Node 0402
  WARNING 02: maximum depth increased for Node 05
  WARNING 02: maximum depth increased for Node 07
  WARNING 02: maximum depth increased for Node 06
  WARNING 02: maximum depth increased for Node 08
  WARNING 02: maximum depth increased for Node 09
  WARNING 02: maximum depth increased for Node 1101
  WARNING 02: maximum depth increased for Node 1201
  WARNING 02: maximum depth increased for Node 13
  WARNING 02: maximum depth increased for Node 1401
  WARNING 02: maximum depth increased for Node 17
  WARNING 02: maximum depth increased for Node 20
  WARNING 02: maximum depth increased for Node 35
  WARNING 02: maximum depth increased for Node 36
  WARNING 02: maximum depth increased for Node 38
  WARNING 02: maximum depth increased for Node 41
  WARNING 02: maximum depth increased for Node 42
  WARNING 02: maximum depth increased for Node 40
  WARNING 02: maximum depth increased for Node 45
  WARNING 02: maximum depth increased for Node 46
  WARNING 02: maximum depth increased for Node 50
  WARNING 02: maximum depth increased for Node 3601
  WARNING 02: maximum depth increased for Node 51
  WARNING 02: maximum depth increased for Node 48
  WARNING 02: maximum depth increased for Node 4801
  WARNING 02: maximum depth increased for Node 4802
  WARNING 02: maximum depth increased for Node 55
  WARNING 02: maximum depth increased for Node 53
  WARNING 02: maximum depth increased for Node 5301
  WARNING 02: maximum depth increased for Node 5302
  WARNING 02: maximum depth increased for Node 43
  WARNING 02: maximum depth increased for Node 44
  WARNING 02: maximum depth increased for Node 47
  WARNING 02: maximum depth increased for Node 56
  WARNING 02: maximum depth increased for Node 1202
  WARNING 02: maximum depth increased for Node 30
  WARNING 02: maximum depth increased for Node 01
  WARNING 02: maximum depth increased for Node 29
  WARNING 02: maximum depth increased for Node 27
  WARNING 02: maximum depth increased for Node 24
  WARNING 02: maximum depth increased for Node 32
  WARNING 02: maximum depth increased for Node 33
  WARNING 02: maximum depth increased for Node 25
  WARNING 02: maximum depth increased for Node 26
  WARNING 02: maximum depth increased for Node 03
  WARNING 02: maximum depth increased for Node 04
  WARNING 02: maximum depth increased for Node 10
  WARNING 02: maximum depth increased for Node 11
  WARNING 02: maximum depth increased for Node 12
  WARNING 02: maximum depth increased for Node 15
  WARNING 02: maximum depth increased for Node 16
  WARNING 02: maximum depth increased for Node 14
  WARNING 02: maximum depth increased for Node 18
  WARNING 02: maximum depth increased for Node 19
  WARNING 02: maximum depth increased for Node 21
  WARNING 02: maximum depth increased for Node 22
  WARNING 02: maximum depth increased for Node 23
  WARNING 02: maximum depth increased for Node 28
  WARNING 02: maximum depth increased for Node 31
  WARNING 02: maximum depth increased for Node 34
  WARNING 02: maximum depth increased for Node 37
  WARNING 02: maximum depth increased for Node 39
  WARNING 02: maximum depth increased for Node 49
  WARNING 02: maximum depth increased for Node 57
  WARNING 02: maximum depth increased for Node 54
  WARNING 02: maximum depth increased for Node 2001
  WARNING 02: maximum depth increased for Node 4001
  WARNING 02: maximum depth increased for Node 2201
  WARNING 02: maximum depth increased for Node 52
  
  *********************************************************
  NOTE: The summary statistics displayed in this report are
  based on results found at every computational time step,  
  not just on results from each reporting time step.
  *********************************************************
  
  ****************
  Analysis Options
  ****************
  Flow Units ............... CMS
  Process Models:
    Rainfall/Runoff ........ YES
    RDII ................... NO
    Snowmelt ............... NO
    Groundwater ............ NO
    Flow Routing ........... YES
    Ponding Allowed ........ NO
    Water Quality .......... NO
  Infiltration Method ...... HORTON
  Flow Routing Method ...... KINWAVE
  Starting Date ............ 01/01/2019 00:00:00
  Ending Date .............. 01/09/2019 12:00:00
  Antecedent Dry Days ...... 5.0
  Report Time Step ......... 01:00:00
  Wet Time Step ............ 00:15:00
  Dry Time Step ............ 01:00:00
  Routing Time Step ........ 60.00 sec
  
  
  **************************        Volume         Depth
  Runoff Quantity Continuity     hectare-m            mm
  **************************     ---------       -------
  Total Precipitation ......       536.396         0.500
  Evaporation Loss .........         0.000         0.000
  Infiltration Loss ........       107.279         0.100
  Surface Runoff ...........        17.094         0.016
  Final Storage ............       412.047         0.384
  Continuity Error (%) .....        -0.004
  
  
  **************************        Volume        Volume
  Flow Routing Continuity        hectare-m      10^6 ltr
  **************************     ---------     ---------
  Dry Weather Inflow .......         0.000         0.000
  Wet Weather Inflow .......        17.069       170.694
  Groundwater Inflow .......         0.000         0.000
  RDII Inflow ..............         0.000         0.000
  External Inflow ..........         0.000         0.000
  External Outflow .........        16.657       166.568
  Flooding Loss ............         0.000         0.000
  Evaporation Loss .........         0.000         0.000
  Exfiltration Loss ........         0.000         0.000
  Initial Stored Volume ....         0.000         0.000
  Final Stored Volume ......         0.042         0.417
  Continuity Error (%) .....         2.173
  
  
  ********************************
  Highest Flow Instability Indexes
  ********************************
  All links are stable.
  
  
  *************************
  Routing Time Step Summary
  *************************
  Minimum Time Step           :    60.00 sec
  Average Time Step           :    60.00 sec
  Maximum Time Step           :    60.00 sec
  Percent in Steady State     :     0.00
  Average Iterations per Step :     1.00
  Percent Not Converging      :     0.00
  
  
  ***************************
  Subcatchment Runoff Summary
  ***************************
  
  ------------------------------------------------------------------------------------------------------------------------------
                            Total      Total      Total      Total     Imperv       Perv      Total       Total     Peak  Runoff
                           Precip      Runon       Evap      Infil     Runoff     Runoff     Runoff      Runoff   Runoff   Coeff
  Subcatchment                 mm         mm         mm         mm         mm         mm         mm    10^6 ltr      CMS
  ------------------------------------------------------------------------------------------------------------------------------
  sub01                      0.50       0.00       0.00       0.10       0.02       0.00       0.02        3.10     0.01   0.035
  sub03                      0.50       0.00       0.00       0.10       0.03       0.00       0.03        3.00     0.01   0.063
  sub06                      0.50       0.00       0.00       0.10       0.02       0.00       0.02        3.07     0.01   0.045
  sub10                      0.50       0.00       0.00       0.10       0.01       0.00       0.01        3.15     0.01   0.024
  sub14                      0.50       0.00       0.00       0.10       0.01       0.00       0.01        3.17     0.01   0.017
  sub18                      0.50       0.00       0.00       0.10       0.07       0.00       0.07        2.74     0.01   0.134
  sub20                      0.50       0.00       0.00       0.10       0.01       0.00       0.01        3.17     0.01   0.017
  sub17                      0.50       0.00       0.00       0.10       0.01       0.00       0.01        3.13     0.01   0.029
  sub33                      0.50       0.00       0.00       0.10       0.03       0.00       0.03        2.99     0.01   0.065
  sub37                      0.50       0.00       0.00       0.10       0.01       0.00       0.01        3.16     0.01   0.019
  sub38                      0.50       0.00       0.00       0.10       0.04       0.00       0.04        2.95     0.01   0.078
  sub40                      0.50       0.00       0.00       0.10       0.03       0.00       0.03        3.00     0.01   0.065
  sub50                      0.50       0.00       0.00       0.10       0.01       0.00       0.01        3.16     0.01   0.021
  sub45                      0.50       0.00       0.00       0.10       0.02       0.00       0.02        3.06     0.01   0.047
  sub43                      0.50       0.00       0.00       0.10       0.04       0.00       0.04        2.93     0.01   0.084
  sub57                      0.50       0.00       0.00       0.10       0.01       0.00       0.01        3.19     0.01   0.011
  sub53                      0.50       0.00       0.00       0.10       0.00       0.00       0.00        3.20     0.01   0.009
  sub55                      0.50       0.00       0.00       0.10       0.01       0.00       0.01        3.15     0.01   0.023
  sub54                      0.50       0.00       0.00       0.10       0.00       0.00       0.00        3.22     0.01   0.004
  sub52                      0.50       0.00       0.00       0.10       0.01       0.00       0.01        3.18     0.01   0.015
  sub51                      0.50       0.00       0.00       0.10       0.03       0.00       0.03        2.99     0.01   0.067
  sub02                      0.50       0.00       0.00       0.10       0.01       0.00       0.01        3.16     0.01   0.019
  sub05                      0.50       0.00       0.00       0.10       0.04       0.00       0.04        2.91     0.01   0.088
  sub04                      0.50       0.00       0.00       0.10       0.05       0.00       0.05        2.89     0.01   0.094
  sub08                      0.50       0.00       0.00       0.10       0.04       0.00       0.04        2.91     0.01   0.089
  sub09                      0.50       0.00       0.00       0.10       0.04       0.00       0.04        2.97     0.01   0.072
  sub07                      0.50       0.00       0.00       0.10       0.02       0.00       0.02        3.07     0.01   0.044
  sub11                      0.50       0.00       0.00       0.10       0.06       0.00       0.06        2.78     0.01   0.124
  sub13                      0.50       0.00       0.00       0.10       0.01       0.00       0.01        3.14     0.01   0.026
  sub12                      0.50       0.00       0.00       0.10       0.03       0.00       0.03        3.04     0.01   0.054
  sub21                      0.50       0.00       0.00       0.10       0.02       0.00       0.02        3.08     0.01   0.041
  sub19                      0.50       0.00       0.00       0.10       0.02       0.00       0.02        3.07     0.01   0.044
  sub22                      0.50       0.00       0.00       0.10       0.02       0.00       0.02        3.05     0.01   0.049
  sub23                      0.50       0.00       0.00       0.10       0.06       0.00       0.06        2.82     0.01   0.113
  sub39                      0.50       0.00       0.00       0.10       0.03       0.00       0.03        3.03     0.01   0.057
  sub41                      0.50       0.00       0.00       0.10       0.08       0.00       0.08        2.63     0.01   0.162
  sub42                      0.50       0.00       0.00       0.10       0.06       0.00       0.06        2.81     0.01   0.115
  sub15                      0.50       0.00       0.00       0.10       0.06       0.00       0.06        2.82     0.01   0.113
  sub16                      0.50       0.00       0.00       0.10       0.02       0.00       0.02        3.05     0.01   0.049
  sub32                      0.50       0.00       0.00       0.10       0.02       0.00       0.02        3.06     0.01   0.048
  sub31                      0.50       0.00       0.00       0.10       0.01       0.00       0.01        3.16     0.01   0.021
  sub30                      0.50       0.00       0.00       0.10       0.03       0.00       0.03        3.05     0.01   0.051
  sub29                      0.50       0.00       0.00       0.10       0.03       0.00       0.03        3.03     0.01   0.056
  sub27                      0.50       0.00       0.00       0.10       0.03       0.00       0.03        3.04     0.01   0.053
  sub24                      0.50       0.00       0.00       0.10       0.06       0.00       0.06        2.83     0.01   0.110
  sub25                      0.50       0.00       0.00       0.10       0.05       0.00       0.05        2.88     0.01   0.097
  sub28                      0.50       0.00       0.00       0.10       0.02       0.00       0.02        3.12     0.01   0.030
  sub49                      0.50       0.00       0.00       0.10       0.01       0.00       0.01        3.15     0.01   0.024
  sub46                      0.50       0.00       0.00       0.10       0.09       0.00       0.09        2.54     0.01   0.186
  sub47                      0.50       0.00       0.00       0.10       0.04       0.00       0.04        2.97     0.01   0.072
  sub44                      0.50       0.00       0.00       0.10       0.05       0.00       0.05        2.90     0.01   0.090
  sub48                      0.50       0.00       0.00       0.10       0.06       0.00       0.06        2.83     0.01   0.111
  sub35                      0.50       0.00       0.00       0.10       0.05       0.00       0.05        2.87     0.01   0.099
  sub36                      0.50       0.00       0.00       0.10       0.07       0.00       0.07        2.74     0.01   0.133
  sub34                      0.50       0.00       0.00       0.10       0.05       0.00       0.05        2.84     0.01   0.107
  sub26                      0.50       0.00       0.00       0.10       0.06       0.00       0.06        2.80     0.01   0.117
  sub56                      0.50       0.00       0.00       0.10       0.01       0.00       0.01        3.19     0.01   0.011
  
  
  ******************
  Node Depth Summary
  ******************
  
  ---------------------------------------------------------------------------------
                                 Average  Maximum  Maximum  Time of Max    Reported
                                   Depth    Depth      HGL   Occurrence   Max Depth
  Node                 Type       Meters   Meters   Meters  days hr:min      Meters
  ---------------------------------------------------------------------------------
  02                   JUNCTION     0.02     0.03     3.00     3  06:01        0.03
  0201                 JUNCTION     0.02     0.03     2.78     3  06:24        0.03
  0202                 JUNCTION     0.04     0.07     2.44     3  07:19        0.07
  3001                 JUNCTION     0.01     0.02     3.34     3  06:08        0.02
  0401                 JUNCTION     0.02     0.04     3.46     3  06:08        0.04
  0402                 JUNCTION     0.06     0.11     2.80     3  06:24        0.11
  05                   JUNCTION     0.06     0.11     2.73     3  06:25        0.11
  07                   JUNCTION     0.02     0.03     3.31     3  06:28        0.03
  06                   JUNCTION     0.02     0.04     2.04     3  06:01        0.04
  08                   JUNCTION     0.02     0.03     2.03     3  06:01        0.03
  09                   JUNCTION     0.04     0.08     2.09     3  06:26        0.08
  1101                 JUNCTION     0.04     0.08     2.14     3  06:22        0.08
  1201                 JUNCTION     0.02     0.03     1.52     3  06:07        0.03
  13                   JUNCTION     0.01     0.02     2.23     3  06:01        0.02
  1401                 JUNCTION     0.02     0.04     2.84     3  06:25        0.04
  17                   JUNCTION     0.01     0.03     3.83     3  06:01        0.03
  20                   JUNCTION     0.01     0.02     3.57     3  06:01        0.02
  35                   JUNCTION     0.02     0.03     2.60     3  06:01        0.03
  36                   JUNCTION     0.04     0.07     2.27     3  06:21        0.07
  38                   JUNCTION     0.02     0.03     2.49     3  06:01        0.03
  41                   JUNCTION     0.01     0.02     3.69     3  06:01        0.02
  42                   JUNCTION     0.01     0.03     3.15     3  06:10        0.03
  40                   JUNCTION     0.03     0.05     2.76     3  06:15        0.05
  45                   JUNCTION     0.02     0.04     2.85     3  06:14        0.04
  46                   JUNCTION     0.01     0.02     4.12     3  06:01        0.02
  50                   JUNCTION     0.02     0.03     2.48     3  06:01        0.03
  3601                 JUNCTION     0.04     0.07     2.24     3  06:24        0.07
  51                   JUNCTION     0.05     0.09     1.33     3  06:43        0.09
  48                   JUNCTION     0.05     0.09     1.19     3  06:48        0.09
  4801                 JUNCTION     0.05     0.10     1.10     3  06:47        0.10
  4802                 JUNCTION     0.09     0.17     1.07     3  06:47        0.17
  55                   JUNCTION     0.02     0.05     2.63     3  06:01        0.05
  53                   JUNCTION     0.02     0.03     2.22     3  06:01        0.03
  5301                 JUNCTION     0.05     0.10     2.18     3  06:33        0.10
  5302                 JUNCTION     0.05     0.10     2.08     3  06:40        0.10
  43                   JUNCTION     0.01     0.02     3.27     3  06:01        0.02
  44                   JUNCTION     0.01     0.02     1.97     3  06:01        0.02
  47                   JUNCTION     0.01     0.02     4.02     3  06:01        0.02
  56                   JUNCTION     0.01     0.02     3.22     3  06:01        0.02
  1202                 JUNCTION     0.03     0.05     1.35     3  06:23        0.05
  30                   JUNCTION     0.01     0.02     4.03     3  06:01        0.02
  01                   JUNCTION     0.02     0.03     2.03     3  06:01        0.03
  29                   JUNCTION     0.01     0.02     4.56     3  06:01        0.02
  27                   JUNCTION     0.02     0.03     3.98     3  06:07        0.03
  24                   JUNCTION     0.01     0.02     4.10     3  06:01        0.02
  32                   JUNCTION     0.04     0.07     2.46     3  07:15        0.07
  33                   JUNCTION     0.03     0.05     2.51     3  06:01        0.05
  25                   JUNCTION     0.03     0.06     2.92     3  06:17        0.06
  26                   JUNCTION     0.02     0.03     3.14     3  06:01        0.03
  03                   JUNCTION     0.02     0.03     2.03     3  06:01        0.03
  04                   JUNCTION     0.01     0.02     4.50     3  06:01        0.02
  10                   JUNCTION     0.01     0.02     2.03     3  06:01        0.02
  11                   JUNCTION     0.01     0.02     2.56     3  06:01        0.02
  12                   JUNCTION     0.01     0.02     2.38     3  06:01        0.02
  15                   JUNCTION     0.01     0.02     4.01     3  06:01        0.02
  16                   JUNCTION     0.02     0.04     2.99     3  06:01        0.04
  14                   JUNCTION     0.02     0.04     3.14     3  06:22        0.04
  18                   JUNCTION     0.01     0.03     4.02     3  06:01        0.03
  19                   JUNCTION     0.02     0.04     2.94     3  06:26        0.04
  21                   JUNCTION     0.01     0.02     3.82     3  06:01        0.02
  22                   JUNCTION     0.01     0.01     4.04     3  06:01        0.01
  23                   JUNCTION     0.03     0.05     2.98     3  06:10        0.05
  28                   JUNCTION     0.04     0.08     2.33     3  06:13        0.08
  31                   JUNCTION     0.04     0.08     2.27     3  06:20        0.08
  34                   JUNCTION     0.06     0.11     2.17     3  06:21        0.11
  37                   JUNCTION     0.01     0.02     3.60     3  06:01        0.02
  39                   JUNCTION     0.02     0.03     3.15     3  06:01        0.03
  49                   JUNCTION     0.02     0.04     2.75     3  06:21        0.04
  57                   JUNCTION     0.02     0.03     2.03     3  06:01        0.03
  54                   JUNCTION     0.02     0.03     1.52     3  06:01        0.03
  2001                 JUNCTION     0.03     0.07     2.40     3  05:53        0.06
  4001                 JUNCTION     0.03     0.05     2.56     3  06:33        0.05
  2201                 JUNCTION     0.03     0.06     2.89     3  06:17        0.06
  52                   JUNCTION     0.02     0.03     1.03     3  06:01        0.03
  out01                OUTFALL      0.03     0.06     1.97     3  07:21        0.06
  out02                OUTFALL      0.02     0.03     1.94     3  06:05        0.03
  out03                OUTFALL      0.01     0.03     1.94     3  06:05        0.03
  out04                OUTFALL      0.04     0.07     1.98     3  06:26        0.07
  out05                OUTFALL      0.02     0.04     2.00     3  06:07        0.04
  out06                OUTFALL      0.02     0.03     1.94     3  06:05        0.03
  out07                OUTFALL      0.04     0.08     1.99     3  06:29        0.08
  out08                OUTFALL      0.01     0.02     1.54     3  06:11        0.02
  out09                OUTFALL      0.01     0.02     1.93     3  06:04        0.02
  out12                OUTFALL      0.02     0.03     1.28     3  06:13        0.03
  out14                OUTFALL      0.02     0.04     2.54     3  06:25        0.04
  out13                OUTFALL      0.06     0.11     2.15     3  06:23        0.11
  out11                OUTFALL      0.03     0.05     1.30     3  07:19        0.05
  out10                OUTFALL      0.02     0.03     1.94     3  06:16        0.03
  HKWP                 OUTFALL      0.09     0.17     0.97     3  06:54        0.17
  
  
  *******************
  Node Inflow Summary
  *******************
  
  -------------------------------------------------------------------------------------------------
                                  Maximum  Maximum                  Lateral       Total        Flow
                                  Lateral    Total  Time of Max      Inflow      Inflow     Balance
                                   Inflow   Inflow   Occurrence      Volume      Volume       Error
  Node                 Type           CMS      CMS  days hr:min    10^6 ltr    10^6 ltr     Percent
  -------------------------------------------------------------------------------------------------
  02                   JUNCTION     0.010    0.010     3  06:01        3.16        3.16       0.000
  0201                 JUNCTION     0.000    0.010     3  06:24           0        3.15       0.000
  0202                 JUNCTION     0.000    0.039     3  07:14           0        12.2       0.000
  3001                 JUNCTION     0.000    0.010     3  06:08           0        3.04       0.000
  0401                 JUNCTION     0.000    0.029     3  06:08           0        8.94       0.000
  0402                 JUNCTION     0.000    0.098     3  06:24           0        29.1       0.000
  05                   JUNCTION     0.010    0.108     3  06:25        2.91          32       0.000
  07                   JUNCTION     0.010    0.029     3  06:28        3.07        8.88       0.000
  06                   JUNCTION     0.010    0.010     3  06:01        3.07        3.07       0.000
  08                   JUNCTION     0.010    0.010     3  06:01         2.9         2.9       0.000
  09                   JUNCTION     0.010    0.049     3  06:25        2.97        14.1       0.000
  1101                 JUNCTION     0.000    0.039     3  06:22           0        11.1       0.000
  1201                 JUNCTION     0.000    0.010     3  06:07           0        3.03       0.000
  13                   JUNCTION     0.010    0.010     3  06:01        3.13        3.13       0.000
  1401                 JUNCTION     0.000    0.029     3  06:24           0        9.47       0.000
  17                   JUNCTION     0.010    0.010     3  06:01        3.12        3.12       0.000
  20                   JUNCTION     0.010    0.010     3  06:01        3.17        3.17       0.000
  35                   JUNCTION     0.010    0.010     3  06:01        2.87        2.87       0.000
  36                   JUNCTION     0.010    0.029     3  06:21        2.74        8.89       0.000
  38                   JUNCTION     0.010    0.010     3  06:01        2.94        2.94       0.000
  41                   JUNCTION     0.010    0.010     3  06:01        2.63        2.63       0.000
  42                   JUNCTION     0.010    0.020     3  06:10        2.81        5.43       0.000
  40                   JUNCTION     0.010    0.029     3  06:15        2.99        8.58       0.000
  45                   JUNCTION     0.010    0.020     3  06:14        3.06        5.59       0.000
  46                   JUNCTION     0.010    0.010     3  06:01        2.54        2.54       0.000
  50                   JUNCTION     0.010    0.010     3  06:01        3.15        3.15       0.000
  3601                 JUNCTION     0.000    0.049     3  06:28           0        14.9       0.000
  51                   JUNCTION     0.010    0.059     3  06:43        2.98        17.9       0.000
  48                   JUNCTION     0.010    0.069     3  06:47        2.82        20.7       0.000
  4801                 JUNCTION     0.000    0.078     3  06:47           0        23.6       0.000
  4802                 JUNCTION     0.000    0.167     3  06:47           0        49.7       0.000
  55                   JUNCTION     0.010    0.010     3  06:01        3.15        3.15       0.000
  53                   JUNCTION     0.010    0.010     3  06:01        3.19        3.19       0.000
  5301                 JUNCTION     0.000    0.069     3  06:33           0        20.3       0.000
  5302                 JUNCTION     0.000    0.078     3  06:39           0        23.2       0.000
  43                   JUNCTION     0.010    0.010     3  06:01        2.92        2.92       0.000
  44                   JUNCTION     0.010    0.010     3  06:01         2.9         2.9       0.000
  47                   JUNCTION     0.010    0.010     3  06:01        2.96        2.96       0.000
  56                   JUNCTION     0.010    0.010     3  06:01        3.19        3.19       0.000
  1202                 JUNCTION     0.000    0.010     3  06:23           0        3.02       0.000
  30                   JUNCTION     0.010    0.010     3  06:01        3.04        3.04      -0.000
  01                   JUNCTION     0.010    0.010     3  06:01         3.1         3.1       0.000
  29                   JUNCTION     0.010    0.010     3  06:01        3.03        3.03       0.000
  27                   JUNCTION     0.010    0.020     3  06:07        3.04        6.06       0.000
  24                   JUNCTION     0.010    0.010     3  06:01        2.82        2.82       0.000
  32                   JUNCTION     0.010    0.020     3  07:15        3.05        6.03       0.000
  33                   JUNCTION     0.010    0.010     3  06:01        2.99        2.99       0.000
  25                   JUNCTION     0.010    0.029     3  06:17        2.87        8.48       0.000
  26                   JUNCTION     0.010    0.010     3  06:01         2.8         2.8       0.000
  03                   JUNCTION     0.010    0.010     3  06:01           3           3       0.000
  04                   JUNCTION     0.010    0.010     3  06:01        2.89        2.89       0.000
  10                   JUNCTION     0.010    0.010     3  06:01        3.14        3.14       0.000
  11                   JUNCTION     0.010    0.010     3  06:01        2.77        2.77       0.000
  12                   JUNCTION     0.010    0.010     3  06:01        3.03        3.03       0.000
  15                   JUNCTION     0.010    0.010     3  06:01        2.82        2.82       0.000
  16                   JUNCTION     0.010    0.010     3  06:01        3.05        3.05       0.000
  14                   JUNCTION     0.010    0.020     3  06:22        3.17        6.28       0.000
  18                   JUNCTION     0.010    0.010     3  06:01        2.74        2.74       0.000
  19                   JUNCTION     0.010    0.020     3  06:24        3.07        6.11       0.000
  21                   JUNCTION     0.010    0.010     3  06:01        3.08        3.08       0.000
  22                   JUNCTION     0.010    0.010     3  06:01        3.05        3.05       0.000
  23                   JUNCTION     0.010    0.020     3  06:10        2.81        5.61       0.000
  28                   JUNCTION     0.010    0.039     3  06:13        3.12        12.4       0.000
  31                   JUNCTION     0.010    0.049     3  06:20        3.15        15.5       0.000
  34                   JUNCTION     0.010    0.059     3  06:21        2.84        18.3       0.000
  37                   JUNCTION     0.010    0.010     3  06:01        3.16        3.16       0.000
  39                   JUNCTION     0.010    0.010     3  06:01        3.02        3.02       0.000
  49                   JUNCTION     0.010    0.020     3  06:21        3.14        6.16       0.000
  57                   JUNCTION     0.010    0.010     3  06:01        3.19        3.19       0.000
  54                   JUNCTION     0.010    0.010     3  06:01        3.21        3.21       0.000
  2001                 JUNCTION     0.000    0.036     3  05:53           0        9.25       0.000
  4001                 JUNCTION     0.000    0.059     3  06:33           0        17.1       0.000
  2201                 JUNCTION     0.000    0.029     3  06:17           0        8.48      -0.000
  52                   JUNCTION     0.010    0.010     3  06:01        3.17        3.17       0.000
  out01                OUTFALL      0.000    0.039     3  07:21           0        12.2       0.000
  out02                OUTFALL      0.000    0.010     3  06:05           0         3.1       0.000
  out03                OUTFALL      0.000    0.010     3  06:05           0           3       0.000
  out04                OUTFALL      0.000    0.108     3  06:26           0          32       0.000
  out05                OUTFALL      0.000    0.010     3  06:07           0        3.06       0.000
  out06                OUTFALL      0.000    0.010     3  06:05           0         2.9       0.000
  out07                OUTFALL      0.000    0.049     3  06:29           0        14.1       0.000
  out08                OUTFALL      0.000    0.010     3  06:11           0        3.14       0.000
  out09                OUTFALL      0.000    0.010     3  06:04           0        3.13       0.000
  out12                OUTFALL      0.000    0.010     3  06:13           0        3.21       0.000
  out14                OUTFALL      0.000    0.029     3  06:25           0        9.46       0.000
  out13                OUTFALL      0.000    0.059     3  06:23           0        18.3       0.000
  out11                OUTFALL      0.000    0.010     3  07:19           0        3.01       0.000
  out10                OUTFALL      0.000    0.010     3  06:16           0        3.19       0.000
  HKWP                 OUTFALL      0.000    0.176     3  06:54           0        52.8       0.000
  
  
  *********************
  Node Flooding Summary
  *********************
  
  No nodes were flooded.
  
  
  ***********************
  Outfall Loading Summary
  ***********************
  
  -----------------------------------------------------------
                         Flow       Avg       Max       Total
                         Freq      Flow      Flow      Volume
  Outfall Node           Pcnt       CMS       CMS    10^6 ltr
  -----------------------------------------------------------
  out01                 54.09     0.037     0.039      12.189
  out02                 54.16     0.009     0.010       3.098
  out03                 54.16     0.009     0.010       2.995
  out04                 54.12     0.097     0.108      31.976
  out05                 54.22     0.009     0.010       3.064
  out06                 54.17     0.009     0.010       2.901
  out07                 54.24     0.043     0.049      14.060
  out08                 54.11     0.010     0.010       3.138
  out09                 54.07     0.010     0.010       3.132
  out12                 54.15     0.010     0.010       3.211
  out14                 54.10     0.029     0.029       9.465
  out13                 54.26     0.056     0.059      18.331
  out11                 53.93     0.009     0.010       3.014
  out10                 54.22     0.010     0.010       3.187
  HKWP                  54.22     0.160     0.176      52.809
  -----------------------------------------------------------
  System                54.15     0.505     0.514     166.568
  
  
  ********************
  Link Flow Summary
  ********************
  
  -----------------------------------------------------------------------------
                                 Maximum  Time of Max   Maximum    Max/    Max/
                                  |Flow|   Occurrence   |Veloc|    Full    Full
  Link                 Type          CMS  days hr:min     m/sec    Flow   Depth
  -----------------------------------------------------------------------------
  L01_out02            CONDUIT     0.010     3  06:05      0.20    0.00    0.00
  L02_0201             CONDUIT     0.010     3  06:24      0.18    0.00    0.00
  L0201_0202           CONDUIT     0.010     3  06:26      0.24    0.00    0.00
  L0202_out01          CONDUIT     0.039     3  07:21      0.34    0.00    0.00
  L30_3001             CONDUIT     0.010     3  06:08      0.26    0.00    0.00
  L3001_0202           CONDUIT     0.014     3  05:51      0.47    0.00    0.00
  L03_out03            CONDUIT     0.010     3  06:05      0.20    0.00    0.00
  L29_27               CONDUIT     0.010     3  06:08      0.26    0.00    0.00
  L04_0401             CONDUIT     0.010     3  06:05      0.30    0.00    0.00
  L27_0401             CONDUIT     0.020     3  06:08      0.38    0.00    0.00
  L0401_0402           CONDUIT     0.029     3  06:10      0.45    0.00    0.00
  L24_0402             CONDUIT     0.010     3  05:50      0.37    0.00    0.00
  L0402_05             CONDUIT     0.098     3  06:25      0.45    0.00    0.01
  L05_out04            CONDUIT     0.108     3  06:26      0.77    0.00    0.00
  L32_0202             CONDUIT     0.020     3  07:19      0.15    0.00    0.00
  L33_32               CONDUIT     0.010     3  07:20      0.11    0.00    0.00
  L26_23               CONDUIT     0.010     3  06:12      0.19    0.00    0.00
  L23_25               CONDUIT     0.020     3  06:17      0.20    0.00    0.00
  L25_2201             CONDUIT     0.029     3  06:17      0.29    0.00    0.00
  L2201_0402           CONDUIT     0.029     3  06:22      0.28    0.00    0.00
  L21_07               CONDUIT     0.010     3  06:10      0.24    0.00    0.00
  L07_0402             CONDUIT     0.029     3  06:29      0.51    0.00    0.00
  L18_07               CONDUIT     0.010     3  06:30      0.20    0.00    0.00
  L06_out05            CONDUIT     0.010     3  06:07      0.16    0.00    0.00
  L08_out06            CONDUIT     0.010     3  06:05      0.19    0.00    0.00
  L11_1101             CONDUIT     0.010     3  06:05      0.26    0.00    0.00
  L15_1101             CONDUIT     0.014     3  05:54      0.50    0.00    0.00
  L1101_09             CONDUIT     0.039     3  06:26      0.27    0.00    0.01
  L09_out07            CONDUIT     0.049     3  06:29      0.32    0.00    0.01
  L10_out08            CONDUIT     0.010     3  06:11      0.24    0.00    0.00
  L13_out09            CONDUIT     0.010     3  06:04      0.26    0.00    0.00
  L12_1201             CONDUIT     0.010     3  06:07      0.28    0.00    0.00
  L1201_1202           CONDUIT     0.010     3  06:23      0.17    0.00    0.00
  L1202_out11          CONDUIT     0.010     3  07:19      0.11    0.00    0.00
  L57_out10            CONDUIT     0.010     3  06:16      0.16    0.00    0.00
  L56_1401             CONDUIT     0.010     3  06:10      0.23    0.00    0.00
  L17_14               CONDUIT     0.010     3  06:23      0.22    0.00    0.00
  L14_1401             CONDUIT     0.020     3  06:25      0.28    0.00    0.00
  L1401_out14          CONDUIT     0.029     3  06:25      0.45    0.00    0.00
  L20_2001             CONDUIT     0.010     3  06:10      0.29    0.00    0.00
  L38_2001             CONDUIT     0.010     3  06:07      0.20    0.00    0.00
  L37_2001             CONDUIT     0.022     3  05:53      0.67    0.00    0.00
  L2001_28             CONDUIT     0.029     3  06:13      0.27    0.00    0.00
  L28_31               CONDUIT     0.039     3  06:20      0.27    0.00    0.01
  L31_34               CONDUIT     0.049     3  06:22      0.38    0.00    0.00
  L34_out13            CONDUIT     0.059     3  06:23      0.27    0.00    0.01
  L35_3601             CONDUIT     0.010     3  06:32      0.18    0.00    0.00
  L36_3601             CONDUIT     0.029     3  06:24      0.23    0.00    0.00
  L49_36               CONDUIT     0.020     3  06:24      0.30    0.00    0.00
  L39_49               CONDUIT     0.010     3  06:22      0.20    0.00    0.00
  L46_45               CONDUIT     0.010     3  06:14      0.25    0.00    0.00
  L45_40               CONDUIT     0.020     3  06:15      0.26    0.00    0.00
  L40_4001             CONDUIT     0.029     3  06:17      0.33    0.00    0.00
  L41_42               CONDUIT     0.010     3  06:10      0.23    0.00    0.00
  L42_4001             CONDUIT     0.020     3  06:10      0.43    0.00    0.00
  L55_4001             CONDUIT     0.010     3  06:53      0.12    0.00    0.00
  L4001_5301           CONDUIT     0.059     3  06:33      0.65    0.00    0.00
  L53_5301             CONDUIT     0.010     3  06:15      0.17    0.00    0.00
  L5301_5302           CONDUIT     0.069     3  06:40      0.33    0.00    0.01
  L43_5302             CONDUIT     0.010     3  06:15      0.25    0.00    0.00
  L5302_4802           CONDUIT     0.078     3  06:41      0.69    0.00    0.00
  L44_4802             CONDUIT     0.010     3  06:12      0.26    0.00    0.00
  L47_4801             CONDUIT     0.010     3  06:07      0.35    0.00    0.00
  L48_4801             CONDUIT     0.069     3  06:48      0.48    0.00    0.01
  L4801_4802           CONDUIT     0.078     3  06:50      0.41    0.00    0.01
  L3601_51             CONDUIT     0.049     3  06:44      0.42    0.00    0.00
  L51_48               CONDUIT     0.059     3  06:48      0.34    0.00    0.01
  L50_3601             CONDUIT     0.010     3  06:21      0.19    0.00    0.00
  L22_0402             CONDUIT     0.000     0  00:00      0.00    0.00    0.00
  L54_out12            CONDUIT     0.010     3  06:13      0.21    0.00    0.00
  L16_19               CONDUIT     0.010     3  06:26      0.13    0.00    0.00
  L19_1101             CONDUIT     0.020     3  06:26      0.36    0.00    0.00
  L52_HKWP             CONDUIT     0.010     3  06:32      0.16    0.00    0.00
  L4802_HKWP           CONDUIT     0.167     3  06:54      0.45    0.00    0.01
  
  
  *************************
  Conduit Surcharge Summary
  *************************
  
  No conduits were surcharged.
  

  Analysis begun on:  Mon Feb  1 10:48:05 2021
  Analysis ended on:  Mon Feb  1 10:48:07 2021
  Total elapsed time: 00:00:02